<?xml version="1.0" encoding="UTF-8"?>

<!-- generated on 2025-11-19 20:19:57 by Eclipse SUMO netconvert Version 1.24.0
<netconvertConfiguration xmlns:xsi="http://www.w3.org/2001/XMLSchema-instance" xsi:noNamespaceSchemaLocation="http://sumo.dlr.de/xsd/netconvertConfiguration.xsd">

    <input>
        <node-files value="roundabout.nod.xml"/>
        <edge-files value="roundabout.edg.xml"/>
        <tllogic-files value="roundabout.tll.xml"/>
    </input>

    <output>
        <output-file value="roundabout.net.xml"/>
    </output>

    <processing>
        <roundabouts.guess value="true"/>
    </processing>

</netconvertConfiguration>
-->

<net version="1.20" junctionCornerDetail="5" limitTurnSpeed="5.50" xmlns:xsi="http://www.w3.org/2001/XMLSchema-instance" xsi:noNamespaceSchemaLocation="http://sumo.dlr.de/xsd/net_file.xsd">

    <location netOffset="100.00,100.00" convBoundary="0.00,0.00,200.00,200.00" origBoundary="-100.00,-100.00,100.00,100.00" projParameter="!"/>

    <edge id=":A_0" function="internal">
        <lane id=":A_0_0" index="0" speed="3.65" length="4.67" shape="101.60,200.00 100.80,201.20 100.00,201.60 99.20,201.20 98.40,200.00"/>
    </edge>
    <edge id=":B_0" function="internal">
        <lane id=":B_0_0" index="0" speed="3.65" length="4.67" shape="200.00,98.40 201.20,99.20 201.60,100.00 201.20,100.80 200.00,101.60"/>
    </edge>
    <edge id=":C_0" function="internal">
        <lane id=":C_0_0" index="0" speed="3.65" length="4.67" shape="98.40,0.00 99.20,-1.20 100.00,-1.60 100.80,-1.20 101.60,0.00"/>
    </edge>
    <edge id=":D_0" function="internal">
        <lane id=":D_0_0" index="0" speed="3.65" length="4.67" shape="0.00,101.60 -1.20,100.80 -1.60,100.00 -1.20,99.20 0.00,98.40"/>
    </edge>
    <edge id=":RA_0" function="internal">
        <lane id=":RA_0_0" index="0" speed="6.47" length="7.32" shape="98.40,126.25 98.78,125.33 99.94,124.46 101.86,123.65 104.55,122.89"/>
    </edge>
    <edge id=":RA_1" function="internal">
        <lane id=":RA_1_0" index="0" speed="3.65" length="4.67" shape="98.40,126.25 99.20,125.05 100.00,124.65 100.80,125.05 101.60,126.25"/>
    </edge>
    <edge id=":RA_2" function="internal">
        <lane id=":RA_2_0" index="0" speed="11.11" length="9.24" shape="95.45,122.89 98.12,123.49 100.00,123.68 101.88,123.49 104.55,122.89"/>
    </edge>
    <edge id=":RA_3" function="internal">
        <lane id=":RA_3_0" index="0" speed="6.47" length="7.32" shape="95.45,122.89 98.14,123.65 100.06,124.46 101.22,125.33 101.60,126.25"/>
    </edge>
    <edge id=":RB_0" function="internal">
        <lane id=":RB_0_0" index="0" speed="6.47" length="7.32" shape="126.25,101.60 125.33,101.22 124.46,100.06 123.65,98.14 122.89,95.45"/>
    </edge>
    <edge id=":RB_1" function="internal">
        <lane id=":RB_1_0" index="0" speed="3.65" length="4.67" shape="126.25,101.60 125.05,100.80 124.65,100.00 125.05,99.20 126.25,98.40"/>
    </edge>
    <edge id=":RB_2" function="internal">
        <lane id=":RB_2_0" index="0" speed="11.11" length="9.24" shape="122.89,104.55 123.49,101.88 123.68,100.00 123.49,98.12 122.89,95.45"/>
    </edge>
    <edge id=":RB_3" function="internal">
        <lane id=":RB_3_0" index="0" speed="6.47" length="7.32" shape="122.89,104.55 123.65,101.86 124.46,99.94 125.33,98.78 126.25,98.40"/>
    </edge>
    <edge id=":RC_0" function="internal">
        <lane id=":RC_0_0" index="0" speed="11.11" length="9.24" shape="104.55,77.11 101.88,76.51 100.00,76.32 98.12,76.51 95.45,77.11"/>
    </edge>
    <edge id=":RC_1" function="internal">
        <lane id=":RC_1_0" index="0" speed="6.47" length="7.32" shape="104.55,77.11 101.86,76.35 99.94,75.54 98.78,74.67 98.40,73.75"/>
    </edge>
    <edge id=":RC_2" function="internal">
        <lane id=":RC_2_0" index="0" speed="6.47" length="7.32" shape="101.60,73.75 101.22,74.67 100.06,75.54 98.14,76.35 95.45,77.11"/>
    </edge>
    <edge id=":RC_3" function="internal">
        <lane id=":RC_3_0" index="0" speed="3.65" length="4.67" shape="101.60,73.75 100.80,74.95 100.00,75.35 99.20,74.95 98.40,73.75"/>
    </edge>
    <edge id=":RD_0" function="internal">
        <lane id=":RD_0_0" index="0" speed="11.11" length="9.24" shape="77.11,95.45 76.51,98.12 76.32,100.00 76.51,101.88 77.11,104.55"/>
    </edge>
    <edge id=":RD_1" function="internal">
        <lane id=":RD_1_0" index="0" speed="6.47" length="7.32" shape="77.11,95.45 76.35,98.14 75.54,100.06 74.67,101.22 73.75,101.60"/>
    </edge>
    <edge id=":RD_2" function="internal">
        <lane id=":RD_2_0" index="0" speed="6.47" length="7.32" shape="73.75,98.40 74.67,98.78 75.54,99.94 76.35,101.86 77.11,104.55"/>
    </edge>
    <edge id=":RD_3" function="internal">
        <lane id=":RD_3_0" index="0" speed="3.65" length="4.67" shape="73.75,98.40 74.95,99.20 75.35,100.00 74.95,100.80 73.75,101.60"/>
    </edge>

    <edge id="Ain" from="A" to="RA" priority="2">
        <lane id="Ain_0" index="0" speed="13.89" length="73.75" shape="98.40,200.00 98.40,126.25"/>
    </edge>
    <edge id="Aout" from="RA" to="A" priority="-1">
        <lane id="Aout_0" index="0" speed="13.89" length="73.75" shape="101.60,126.25 101.60,200.00"/>
    </edge>
    <edge id="Bin" from="B" to="RB" priority="2">
        <lane id="Bin_0" index="0" speed="13.89" length="73.75" shape="200.00,101.60 126.25,101.60"/>
    </edge>
    <edge id="Bout" from="RB" to="B" priority="-1">
        <lane id="Bout_0" index="0" speed="13.89" length="73.75" shape="126.25,98.40 200.00,98.40"/>
    </edge>
    <edge id="Cin" from="C" to="RC" priority="2">
        <lane id="Cin_0" index="0" speed="13.89" length="73.75" shape="101.60,0.00 101.60,73.75"/>
    </edge>
    <edge id="Cout" from="RC" to="C" priority="-1">
        <lane id="Cout_0" index="0" speed="13.89" length="73.75" shape="98.40,73.75 98.40,0.00"/>
    </edge>
    <edge id="Din" from="D" to="RD" priority="2">
        <lane id="Din_0" index="0" speed="13.89" length="73.75" shape="0.00,98.40 73.75,98.40"/>
    </edge>
    <edge id="Dout" from="RD" to="D" priority="-1">
        <lane id="Dout_0" index="0" speed="13.89" length="73.75" shape="73.75,101.60 0.00,101.60"/>
    </edge>
    <edge id="RAB" from="RA" to="RB" priority="3" shape="100.00,125.00 103.91,124.69 107.73,123.78 111.35,122.28 114.69,120.23 117.68,117.68 120.23,114.69 122.28,111.35 123.78,107.73 124.69,103.91 125.00,100.00">
        <lane id="RAB_0" index="0" speed="11.11" length="27.55" shape="104.55,122.89 107.24,122.25 110.62,120.85 113.75,118.93 116.55,116.55 118.93,113.75 120.85,110.62 122.25,107.24 122.89,104.55"/>
    </edge>
    <edge id="RBC" from="RB" to="RC" priority="3" shape="125.00,100.00 124.69,96.09 123.78,92.27 122.28,88.65 120.23,85.31 117.68,82.32 114.69,79.77 111.35,77.72 107.73,76.22 103.91,75.31 100.00,75.00">
        <lane id="RBC_0" index="0" speed="11.11" length="27.55" shape="122.89,95.45 122.25,92.76 120.85,89.38 118.93,86.25 116.55,83.45 113.75,81.07 110.62,79.15 107.24,77.75 104.55,77.11"/>
    </edge>
    <edge id="RCD" from="RC" to="RD" priority="3" shape="100.00,75.00 96.09,75.31 92.27,76.22 88.65,77.72 85.31,79.77 82.32,82.32 79.77,85.31 77.72,88.65 76.22,92.27 75.31,96.09 75.00,100.00">
        <lane id="RCD_0" index="0" speed="11.11" length="27.55" shape="95.45,77.11 92.76,77.75 89.38,79.15 86.25,81.07 83.45,83.45 81.07,86.25 79.15,89.38 77.75,92.76 77.11,95.45"/>
    </edge>
    <edge id="RDA" from="RD" to="RA" priority="3" shape="75.00,100.00 75.31,103.91 76.22,107.73 77.72,111.35 79.77,114.69 82.32,117.68 85.31,120.23 88.65,122.28 92.27,123.78 96.09,124.69 100.00,125.00">
        <lane id="RDA_0" index="0" speed="11.11" length="27.55" shape="77.11,104.55 77.75,107.24 79.15,110.62 81.07,113.75 83.45,116.55 86.25,118.93 89.38,120.85 92.76,122.25 95.45,122.89"/>
    </edge>

    <tlLogic id="RA" type="static" programID="0" offset="22">
        <phase duration="65" state="rrGG"/>
        <phase duration="3"  state="rryy"/>
        <phase duration="19" state="GGrr"/>
        <phase duration="3"  state="yyrr"/>
    </tlLogic>
    <tlLogic id="RB" type="static" programID="0" offset="44">
        <phase duration="65" state="rrGG"/>
        <phase duration="3"  state="rryy"/>
        <phase duration="19" state="GGrr"/>
        <phase duration="3"  state="yyrr"/>
    </tlLogic>
    <tlLogic id="RC" type="static" programID="0" offset="67">
        <phase duration="65" state="GGrr"/>
        <phase duration="3"  state="yyrr"/>
        <phase duration="19" state="rrGG"/>
        <phase duration="3"  state="rryy"/>
    </tlLogic>
    <tlLogic id="RD" type="static" programID="0" offset="89">
        <phase duration="65" state="GGrr"/>
        <phase duration="3"  state="yyrr"/>
        <phase duration="19" state="rrGG"/>
        <phase duration="3"  state="rryy"/>
    </tlLogic>

    <junction id="A" type="priority" x="100.00" y="200.00" incLanes="Aout_0" intLanes=":A_0_0" shape="100.00,200.00 103.20,200.00 100.00,200.00">
        <request index="0" response="0" foes="0" cont="0"/>
    </junction>
    <junction id="B" type="priority" x="200.00" y="100.00" incLanes="Bout_0" intLanes=":B_0_0" shape="200.00,100.00 200.00,96.80 200.00,100.00">
        <request index="0" response="0" foes="0" cont="0"/>
    </junction>
    <junction id="C" type="priority" x="100.00" y="0.00" incLanes="Cout_0" intLanes=":C_0_0" shape="100.00,0.00 96.80,0.00 100.00,0.00">
        <request index="0" response="0" foes="0" cont="0"/>
    </junction>
    <junction id="D" type="priority" x="0.00" y="100.00" incLanes="Dout_0" intLanes=":D_0_0" shape="0.00,100.00 0.00,103.20 0.00,100.00">
        <request index="0" response="0" foes="0" cont="0"/>
    </junction>
    <junction id="RA" type="traffic_light" x="100.00" y="125.00" incLanes="Ain_0 RDA_0" intLanes=":RA_0_0 :RA_1_0 :RA_2_0 :RA_3_0" shape="96.80,126.25 103.20,126.25 103.36,125.44 103.57,125.12 103.86,124.86 104.23,124.65 104.68,124.51 104.42,121.28 101.17,121.96 100.00,122.05 98.83,121.96 97.43,121.71 95.58,121.28 95.32,124.51 96.14,124.86 96.43,125.12 96.64,125.44 96.76,125.81">
        <request index="0" response="1100" foes="1100" cont="0"/>
        <request index="1" response="1000" foes="1000" cont="0"/>
        <request index="2" response="0000" foes="0001" cont="0"/>
        <request index="3" response="0000" foes="0011" cont="0"/>
    </junction>
    <junction id="RB" type="traffic_light" x="125.00" y="100.00" incLanes="Bin_0 RAB_0" intLanes=":RB_0_0 :RB_1_0 :RB_2_0 :RB_3_0" shape="126.25,103.20 126.25,96.80 125.44,96.64 125.12,96.43 124.86,96.14 124.65,95.77 124.51,95.32 121.28,95.58 121.96,98.83 122.05,100.00 121.96,101.17 121.71,102.57 121.28,104.42 124.51,104.68 124.86,103.86 125.12,103.57 125.44,103.36 125.81,103.24">
        <request index="0" response="1100" foes="1100" cont="0"/>
        <request index="1" response="1000" foes="1000" cont="0"/>
        <request index="2" response="0000" foes="0001" cont="0"/>
        <request index="3" response="0000" foes="0011" cont="0"/>
    </junction>
    <junction id="RC" type="traffic_light" x="100.00" y="75.00" incLanes="RBC_0 Cin_0" intLanes=":RC_0_0 :RC_1_0 :RC_2_0 :RC_3_0" shape="104.42,78.72 104.68,75.49 103.86,75.14 103.57,74.88 103.36,74.56 103.24,74.19 103.20,73.75 96.80,73.75 96.64,74.56 96.43,74.88 96.14,75.14 95.77,75.35 95.32,75.49 95.58,78.72 98.83,78.04 100.00,77.95 101.17,78.04 102.57,78.29">
        <request index="0" response="0000" foes="0100" cont="0"/>
        <request index="1" response="0000" foes="1100" cont="0"/>
        <request index="2" response="0011" foes="0011" cont="0"/>
        <request index="3" response="0010" foes="0010" cont="0"/>
    </junction>
    <junction id="RD" type="traffic_light" x="75.00" y="100.00" incLanes="RCD_0 Din_0" intLanes=":RD_0_0 :RD_1_0 :RD_2_0 :RD_3_0" shape="75.49,104.68 78.72,104.42 78.04,101.17 77.95,100.00 78.04,98.83 78.29,97.43 78.72,95.58 75.49,95.32 75.14,96.14 74.88,96.43 74.56,96.64 74.19,96.76 73.75,96.80 73.75,103.20 74.56,103.36 74.88,103.57 75.14,103.86 75.35,104.23">
        <request index="0" response="0000" foes="0100" cont="0"/>
        <request index="1" response="0000" foes="1100" cont="0"/>
        <request index="2" response="0011" foes="0011" cont="0"/>
        <request index="3" response="0010" foes="0010" cont="0"/>
    </junction>

    <connection from="Ain" to="RAB" fromLane="0" toLane="0" via=":RA_0_0" tl="RA" linkIndex="0" dir="l" state="o"/>
    <connection from="Ain" to="Aout" fromLane="0" toLane="0" via=":RA_1_0" tl="RA" linkIndex="1" dir="t" state="o"/>
    <connection from="Aout" to="Ain" fromLane="0" toLane="0" via=":A_0_0" dir="t" state="M"/>
    <connection from="Bin" to="RBC" fromLane="0" toLane="0" via=":RB_0_0" tl="RB" linkIndex="0" dir="l" state="o"/>
    <connection from="Bin" to="Bout" fromLane="0" toLane="0" via=":RB_1_0" tl="RB" linkIndex="1" dir="t" state="o"/>
    <connection from="Bout" to="Bin" fromLane="0" toLane="0" via=":B_0_0" dir="t" state="M"/>
    <connection from="Cin" to="RCD" fromLane="0" toLane="0" via=":RC_2_0" tl="RC" linkIndex="2" dir="l" state="o"/>
    <connection from="Cin" to="Cout" fromLane="0" toLane="0" via=":RC_3_0" tl="RC" linkIndex="3" dir="t" state="o"/>
    <connection from="Cout" to="Cin" fromLane="0" toLane="0" via=":C_0_0" dir="t" state="M"/>
    <connection from="Din" to="RDA" fromLane="0" toLane="0" via=":RD_2_0" tl="RD" linkIndex="2" dir="l" state="o"/>
    <connection from="Din" to="Dout" fromLane="0" toLane="0" via=":RD_3_0" tl="RD" linkIndex="3" dir="t" state="o"/>
    <connection from="Dout" to="Din" fromLane="0" toLane="0" via=":D_0_0" dir="t" state="M"/>
    <connection from="RAB" to="RBC" fromLane="0" toLane="0" via=":RB_2_0" tl="RB" linkIndex="2" dir="s" state="O"/>
    <connection from="RAB" to="Bout" fromLane="0" toLane="0" via=":RB_3_0" tl="RB" linkIndex="3" dir="l" state="O"/>
    <connection from="RBC" to="RCD" fromLane="0" toLane="0" via=":RC_0_0" tl="RC" linkIndex="0" dir="s" state="O"/>
    <connection from="RBC" to="Cout" fromLane="0" toLane="0" via=":RC_1_0" tl="RC" linkIndex="1" dir="l" state="O"/>
    <connection from="RCD" to="RDA" fromLane="0" toLane="0" via=":RD_0_0" tl="RD" linkIndex="0" dir="s" state="O"/>
    <connection from="RCD" to="Dout" fromLane="0" toLane="0" via=":RD_1_0" tl="RD" linkIndex="1" dir="l" state="O"/>
    <connection from="RDA" to="RAB" fromLane="0" toLane="0" via=":RA_2_0" tl="RA" linkIndex="2" dir="s" state="O"/>
    <connection from="RDA" to="Aout" fromLane="0" toLane="0" via=":RA_3_0" tl="RA" linkIndex="3" dir="l" state="O"/>

    <connection from=":A_0" to="Ain" fromLane="0" toLane="0" dir="t" state="M"/>
    <connection from=":B_0" to="Bin" fromLane="0" toLane="0" dir="t" state="M"/>
    <connection from=":C_0" to="Cin" fromLane="0" toLane="0" dir="t" state="M"/>
    <connection from=":D_0" to="Din" fromLane="0" toLane="0" dir="t" state="M"/>
    <connection from=":RA_0" to="RAB" fromLane="0" toLane="0" dir="l" state="M"/>
    <connection from=":RA_1" to="Aout" fromLane="0" toLane="0" dir="t" state="M"/>
    <connection from=":RA_2" to="RAB" fromLane="0" toLane="0" dir="s" state="M"/>
    <connection from=":RA_3" to="Aout" fromLane="0" toLane="0" dir="l" state="M"/>
    <connection from=":RB_0" to="RBC" fromLane="0" toLane="0" dir="l" state="M"/>
    <connection from=":RB_1" to="Bout" fromLane="0" toLane="0" dir="t" state="M"/>
    <connection from=":RB_2" to="RBC" fromLane="0" toLane="0" dir="s" state="M"/>
    <connection from=":RB_3" to="Bout" fromLane="0" toLane="0" dir="l" state="M"/>
    <connection from=":RC_0" to="RCD" fromLane="0" toLane="0" dir="s" state="M"/>
    <connection from=":RC_1" to="Cout" fromLane="0" toLane="0" dir="l" state="M"/>
    <connection from=":RC_2" to="RCD" fromLane="0" toLane="0" dir="l" state="M"/>
    <connection from=":RC_3" to="Cout" fromLane="0" toLane="0" dir="t" state="M"/>
    <connection from=":RD_0" to="RDA" fromLane="0" toLane="0" dir="s" state="M"/>
    <connection from=":RD_1" to="Dout" fromLane="0" toLane="0" dir="l" state="M"/>
    <connection from=":RD_2" to="RDA" fromLane="0" toLane="0" dir="l" state="M"/>
    <connection from=":RD_3" to="Dout" fromLane="0" toLane="0" dir="t" state="M"/>

</net>
