<?xml version="1.0" encoding="UTF-8"?>

<!-- generated on 2025-11-06 13:55:13 by Eclipse SUMO netconvert Version 1.24.0
<netconvertConfiguration xmlns:xsi="http://www.w3.org/2001/XMLSchema-instance" xsi:noNamespaceSchemaLocation="http://sumo.dlr.de/xsd/netconvertConfiguration.xsd">

    <input>
        <node-files value="roundabout.nod.xml"/>
        <edge-files value="roundabout.edg.xml"/>
    </input>

    <output>
        <output-file value="roundabout.net.xml"/>
    </output>

    <processing>
        <roundabouts.guess value="true"/>
    </processing>

</netconvertConfiguration>
-->

<net version="1.20" junctionCornerDetail="5" limitTurnSpeed="5.50" xmlns:xsi="http://www.w3.org/2001/XMLSchema-instance" xsi:noNamespaceSchemaLocation="http://sumo.dlr.de/xsd/net_file.xsd">

    <location netOffset="100.00,100.00" convBoundary="0.00,0.00,200.00,200.00" origBoundary="-100.00,-100.00,100.00,100.00" projParameter="!"/>

    <edge id=":A_0" function="internal">
        <lane id=":A_0_0" index="0" speed="3.65" length="4.67" shape="101.60,200.00 100.80,201.20 100.00,201.60 99.20,201.20 98.40,200.00"/>
    </edge>
    <edge id=":B_0" function="internal">
        <lane id=":B_0_0" index="0" speed="3.65" length="4.67" shape="200.00,98.40 201.20,99.20 201.60,100.00 201.20,100.80 200.00,101.60"/>
    </edge>
    <edge id=":C_0" function="internal">
        <lane id=":C_0_0" index="0" speed="3.65" length="4.67" shape="98.40,0.00 99.20,-1.20 100.00,-1.60 100.80,-1.20 101.60,0.00"/>
    </edge>
    <edge id=":D_0" function="internal">
        <lane id=":D_0_0" index="0" speed="3.65" length="4.67" shape="0.00,101.60 -1.20,100.80 -1.60,100.00 -1.20,99.20 0.00,98.40"/>
    </edge>
    <edge id=":RA_0" function="internal">
        <lane id=":RA_0_0" index="0" speed="10.64" length="10.35" shape="98.40,125.80 98.81,124.75 100.02,123.08 102.05,120.77 104.90,117.84"/>
    </edge>
    <edge id=":RA_1" function="internal">
        <lane id=":RA_1_0" index="0" speed="3.65" length="4.67" shape="98.40,125.80 99.20,124.60 100.00,124.20 100.80,124.60 101.60,125.80"/>
    </edge>
    <edge id=":RA_2" function="internal">
        <lane id=":RA_2_0" index="0" speed="7.16" length="11.17" shape="95.10,117.84 97.55,119.68 100.00,120.29 102.45,119.68 104.90,117.84"/>
    </edge>
    <edge id=":RA_3" function="internal">
        <lane id=":RA_3_0" index="0" speed="10.64" length="10.35" shape="95.10,117.84 97.95,120.77 99.98,123.08 101.19,124.75 101.60,125.80"/>
    </edge>
    <edge id=":RB_0" function="internal">
        <lane id=":RB_0_0" index="0" speed="10.64" length="10.35" shape="125.80,101.60 124.75,101.19 123.08,99.98 120.77,97.95 117.84,95.10"/>
    </edge>
    <edge id=":RB_1" function="internal">
        <lane id=":RB_1_0" index="0" speed="3.65" length="4.67" shape="125.80,101.60 124.60,100.80 124.20,100.00 124.60,99.20 125.80,98.40"/>
    </edge>
    <edge id=":RB_2" function="internal">
        <lane id=":RB_2_0" index="0" speed="7.16" length="11.17" shape="117.84,104.90 119.68,102.45 120.29,100.00 119.68,97.55 117.84,95.10"/>
    </edge>
    <edge id=":RB_3" function="internal">
        <lane id=":RB_3_0" index="0" speed="10.64" length="10.35" shape="117.84,104.90 120.77,102.05 123.08,100.02 124.75,98.81 125.80,98.40"/>
    </edge>
    <edge id=":RC_0" function="internal">
        <lane id=":RC_0_0" index="0" speed="7.16" length="11.17" shape="104.90,82.16 102.45,80.32 100.00,79.71 97.55,80.32 95.10,82.16"/>
    </edge>
    <edge id=":RC_1" function="internal">
        <lane id=":RC_1_0" index="0" speed="10.64" length="10.35" shape="104.90,82.16 102.05,79.23 100.02,76.92 98.81,75.25 98.40,74.20"/>
    </edge>
    <edge id=":RC_2" function="internal">
        <lane id=":RC_2_0" index="0" speed="10.64" length="10.35" shape="101.60,74.20 101.19,75.25 99.98,76.92 97.95,79.23 95.10,82.16"/>
    </edge>
    <edge id=":RC_3" function="internal">
        <lane id=":RC_3_0" index="0" speed="3.65" length="4.67" shape="101.60,74.20 100.80,75.40 100.00,75.80 99.20,75.40 98.40,74.20"/>
    </edge>
    <edge id=":RD_0" function="internal">
        <lane id=":RD_0_0" index="0" speed="7.16" length="11.17" shape="82.16,95.10 80.32,97.55 79.71,100.00 80.32,102.45 82.16,104.90"/>
    </edge>
    <edge id=":RD_1" function="internal">
        <lane id=":RD_1_0" index="0" speed="10.64" length="10.35" shape="82.16,95.10 79.23,97.95 76.92,99.98 75.25,101.19 74.20,101.60"/>
    </edge>
    <edge id=":RD_2" function="internal">
        <lane id=":RD_2_0" index="0" speed="10.64" length="10.35" shape="74.20,98.40 75.25,98.81 76.92,100.02 79.23,102.05 82.16,104.90"/>
    </edge>
    <edge id=":RD_3" function="internal">
        <lane id=":RD_3_0" index="0" speed="3.65" length="4.67" shape="74.20,98.40 75.40,99.20 75.80,100.00 75.40,100.80 74.20,101.60"/>
    </edge>

    <edge id="Ain" from="A" to="RA" priority="2">
        <lane id="Ain_0" index="0" speed="13.89" length="74.20" shape="98.40,200.00 98.40,125.80"/>
    </edge>
    <edge id="Aout" from="RA" to="A" priority="-1">
        <lane id="Aout_0" index="0" speed="13.89" length="74.20" shape="101.60,125.80 101.60,200.00"/>
    </edge>
    <edge id="Bin" from="B" to="RB" priority="2">
        <lane id="Bin_0" index="0" speed="13.89" length="74.20" shape="200.00,101.60 125.80,101.60"/>
    </edge>
    <edge id="Bout" from="RB" to="B" priority="-1">
        <lane id="Bout_0" index="0" speed="13.89" length="74.20" shape="125.80,98.40 200.00,98.40"/>
    </edge>
    <edge id="Cin" from="C" to="RC" priority="2">
        <lane id="Cin_0" index="0" speed="13.89" length="74.20" shape="101.60,0.00 101.60,74.20"/>
    </edge>
    <edge id="Cout" from="RC" to="C" priority="-1">
        <lane id="Cout_0" index="0" speed="13.89" length="74.20" shape="98.40,74.20 98.40,0.00"/>
    </edge>
    <edge id="Din" from="D" to="RD" priority="2">
        <lane id="Din_0" index="0" speed="13.89" length="74.20" shape="0.00,98.40 74.20,98.40"/>
    </edge>
    <edge id="Dout" from="RD" to="D" priority="-1">
        <lane id="Dout_0" index="0" speed="13.89" length="74.20" shape="74.20,101.60 0.00,101.60"/>
    </edge>
    <edge id="RAB" from="RA" to="RB" priority="3">
        <lane id="RAB_0" index="0" speed="11.11" length="18.30" shape="104.90,117.84 117.84,104.90"/>
    </edge>
    <edge id="RBC" from="RB" to="RC" priority="3">
        <lane id="RBC_0" index="0" speed="11.11" length="18.30" shape="117.84,95.10 104.90,82.16"/>
    </edge>
    <edge id="RCD" from="RC" to="RD" priority="3">
        <lane id="RCD_0" index="0" speed="11.11" length="18.30" shape="95.10,82.16 82.16,95.10"/>
    </edge>
    <edge id="RDA" from="RD" to="RA" priority="3">
        <lane id="RDA_0" index="0" speed="11.11" length="18.30" shape="82.16,104.90 95.10,117.84"/>
    </edge>

    <junction id="A" type="priority" x="100.00" y="200.00" incLanes="Aout_0" intLanes=":A_0_0" shape="100.00,200.00 103.20,200.00 100.00,200.00">
        <request index="0" response="0" foes="0" cont="0"/>
    </junction>
    <junction id="B" type="priority" x="200.00" y="100.00" incLanes="Bout_0" intLanes=":B_0_0" shape="200.00,100.00 200.00,96.80 200.00,100.00">
        <request index="0" response="0" foes="0" cont="0"/>
    </junction>
    <junction id="C" type="priority" x="100.00" y="0.00" incLanes="Cout_0" intLanes=":C_0_0" shape="100.00,0.00 96.80,0.00 100.00,0.00">
        <request index="0" response="0" foes="0" cont="0"/>
    </junction>
    <junction id="D" type="priority" x="0.00" y="100.00" incLanes="Dout_0" intLanes=":D_0_0" shape="0.00,100.00 0.00,103.20 0.00,100.00">
        <request index="0" response="0" foes="0" cont="0"/>
    </junction>
    <junction id="RA" type="priority" x="100.00" y="125.00" incLanes="Ain_0 RDA_0" intLanes=":RA_0_0 :RA_1_0 :RA_2_0 :RA_3_0" shape="96.80,125.80 103.20,125.80 103.51,123.26 103.91,122.09 104.46,120.99 105.16,119.95 106.03,118.97 103.77,116.71 101.26,118.38 100.00,118.59 98.74,118.38 97.49,117.75 96.23,116.71 93.97,118.97 95.54,120.99 96.09,122.09 96.49,123.26 96.72,124.50">
        <request index="0" response="1100" foes="1100" cont="0"/>
        <request index="1" response="1000" foes="1000" cont="0"/>
        <request index="2" response="0000" foes="0001" cont="0"/>
        <request index="3" response="0000" foes="0011" cont="0"/>
    </junction>
    <junction id="RB" type="priority" x="125.00" y="100.00" incLanes="Bin_0 RAB_0" intLanes=":RB_0_0 :RB_1_0 :RB_2_0 :RB_3_0" shape="125.80,103.20 125.80,96.80 123.26,96.49 122.09,96.09 120.99,95.54 119.95,94.84 118.97,93.97 116.71,96.23 118.38,98.74 118.59,100.00 118.38,101.26 117.75,102.51 116.71,103.77 118.97,106.03 121.08,104.13 121.98,103.63 122.97,103.35 124.19,103.23">
        <request index="0" response="1100" foes="1100" cont="0"/>
        <request index="1" response="1000" foes="1000" cont="0"/>
        <request index="2" response="0000" foes="0001" cont="0"/>
        <request index="3" response="0000" foes="0011" cont="0"/>
    </junction>
    <junction id="RC" type="priority" x="100.00" y="75.00" incLanes="RBC_0 Cin_0" intLanes=":RC_0_0 :RC_1_0 :RC_2_0 :RC_3_0" shape="103.77,83.29 106.03,81.03 104.46,79.01 103.91,77.91 103.51,76.74 103.28,75.50 103.20,74.20 96.80,74.20 96.49,76.74 96.09,77.91 95.54,79.01 94.84,80.05 93.97,81.03 96.23,83.29 98.74,81.62 100.00,81.41 101.26,81.62 102.51,82.25">
        <request index="0" response="0000" foes="0100" cont="0"/>
        <request index="1" response="0000" foes="1100" cont="0"/>
        <request index="2" response="0011" foes="0011" cont="0"/>
        <request index="3" response="0010" foes="0010" cont="0"/>
    </junction>
    <junction id="RD" type="priority" x="75.00" y="100.00" incLanes="RCD_0 Din_0" intLanes=":RD_0_0 :RD_1_0 :RD_2_0 :RD_3_0" shape="81.03,106.03 83.29,103.77 81.62,101.26 81.41,100.00 81.62,98.74 82.25,97.49 83.29,96.23 81.03,93.97 79.01,95.54 77.91,96.09 76.74,96.49 75.50,96.72 74.20,96.80 74.20,103.20 76.74,103.51 77.91,103.91 79.01,104.46 80.05,105.16">
        <request index="0" response="0000" foes="0100" cont="0"/>
        <request index="1" response="0000" foes="1100" cont="0"/>
        <request index="2" response="0011" foes="0011" cont="0"/>
        <request index="3" response="0010" foes="0010" cont="0"/>
    </junction>

    <connection from="Ain" to="RAB" fromLane="0" toLane="0" via=":RA_0_0" dir="l" state="m"/>
    <connection from="Ain" to="Aout" fromLane="0" toLane="0" via=":RA_1_0" dir="t" state="m"/>
    <connection from="Aout" to="Ain" fromLane="0" toLane="0" via=":A_0_0" dir="t" state="M"/>
    <connection from="Bin" to="RBC" fromLane="0" toLane="0" via=":RB_0_0" dir="l" state="m"/>
    <connection from="Bin" to="Bout" fromLane="0" toLane="0" via=":RB_1_0" dir="t" state="m"/>
    <connection from="Bout" to="Bin" fromLane="0" toLane="0" via=":B_0_0" dir="t" state="M"/>
    <connection from="Cin" to="RCD" fromLane="0" toLane="0" via=":RC_2_0" dir="l" state="m"/>
    <connection from="Cin" to="Cout" fromLane="0" toLane="0" via=":RC_3_0" dir="t" state="m"/>
    <connection from="Cout" to="Cin" fromLane="0" toLane="0" via=":C_0_0" dir="t" state="M"/>
    <connection from="Din" to="RDA" fromLane="0" toLane="0" via=":RD_2_0" dir="l" state="m"/>
    <connection from="Din" to="Dout" fromLane="0" toLane="0" via=":RD_3_0" dir="t" state="m"/>
    <connection from="Dout" to="Din" fromLane="0" toLane="0" via=":D_0_0" dir="t" state="M"/>
    <connection from="RAB" to="RBC" fromLane="0" toLane="0" via=":RB_2_0" dir="r" state="M"/>
    <connection from="RAB" to="Bout" fromLane="0" toLane="0" via=":RB_3_0" dir="l" state="M"/>
    <connection from="RBC" to="RCD" fromLane="0" toLane="0" via=":RC_0_0" dir="r" state="M"/>
    <connection from="RBC" to="Cout" fromLane="0" toLane="0" via=":RC_1_0" dir="l" state="M"/>
    <connection from="RCD" to="RDA" fromLane="0" toLane="0" via=":RD_0_0" dir="r" state="M"/>
    <connection from="RCD" to="Dout" fromLane="0" toLane="0" via=":RD_1_0" dir="l" state="M"/>
    <connection from="RDA" to="RAB" fromLane="0" toLane="0" via=":RA_2_0" dir="r" state="M"/>
    <connection from="RDA" to="Aout" fromLane="0" toLane="0" via=":RA_3_0" dir="l" state="M"/>

    <connection from=":A_0" to="Ain" fromLane="0" toLane="0" dir="t" state="M"/>
    <connection from=":B_0" to="Bin" fromLane="0" toLane="0" dir="t" state="M"/>
    <connection from=":C_0" to="Cin" fromLane="0" toLane="0" dir="t" state="M"/>
    <connection from=":D_0" to="Din" fromLane="0" toLane="0" dir="t" state="M"/>
    <connection from=":RA_0" to="RAB" fromLane="0" toLane="0" dir="l" state="M"/>
    <connection from=":RA_1" to="Aout" fromLane="0" toLane="0" dir="t" state="M"/>
    <connection from=":RA_2" to="RAB" fromLane="0" toLane="0" dir="r" state="M"/>
    <connection from=":RA_3" to="Aout" fromLane="0" toLane="0" dir="l" state="M"/>
    <connection from=":RB_0" to="RBC" fromLane="0" toLane="0" dir="l" state="M"/>
    <connection from=":RB_1" to="Bout" fromLane="0" toLane="0" dir="t" state="M"/>
    <connection from=":RB_2" to="RBC" fromLane="0" toLane="0" dir="r" state="M"/>
    <connection from=":RB_3" to="Bout" fromLane="0" toLane="0" dir="l" state="M"/>
    <connection from=":RC_0" to="RCD" fromLane="0" toLane="0" dir="r" state="M"/>
    <connection from=":RC_1" to="Cout" fromLane="0" toLane="0" dir="l" state="M"/>
    <connection from=":RC_2" to="RCD" fromLane="0" toLane="0" dir="l" state="M"/>
    <connection from=":RC_3" to="Cout" fromLane="0" toLane="0" dir="t" state="M"/>
    <connection from=":RD_0" to="RDA" fromLane="0" toLane="0" dir="r" state="M"/>
    <connection from=":RD_1" to="Dout" fromLane="0" toLane="0" dir="l" state="M"/>
    <connection from=":RD_2" to="RDA" fromLane="0" toLane="0" dir="l" state="M"/>
    <connection from=":RD_3" to="Dout" fromLane="0" toLane="0" dir="t" state="M"/>

</net>
